 &LAYERS_PARM01
 layers_taveFreq=0.,
 layers_bolus(1)=.TRUE.,
 layers_name(1) = 'RHO',
 layers_bounds(1:26,1) = 24.0,24.2,24.4,24.6,24.8,
                         25.0,25.2,25.4,25.6,25.8,
                         26.0,26.2,26.4,26.6,26.8,
                         27.0,27.2,27.4,27.6,27.8,
                         28.0,28.2,28.4,28.6,28.8,29.0,
                 
 &
